*AE01.15.00.030_sim01.net
.inc ..\AE01.15.00.030.cir
.step param R 100 200 50
.param RD=R*2
.step param C 10n 20n 5n
.param FC=1/(2*pi*{R}*{C})
.meas FC_mag min mag(V(/out_h,/out_l))
.meas FC_frec find frequency when FC_mag=mag(V(/out_h,/out_l))
.meas FC_mag_frec find mag(V(/out_h,/out_l)) when frequency=FC_frec
.ac dec 100 1 100MEG
.options plotwinsize=0
.options numdgt=7
